AMOSTRA/ABA/Cargas.dss
! ==========================================================
! CARGAS — mes 01
! BT: UCBT_tab agregada por transformador (kW = ENE/730 h)
! MT: UCMT_tab individual no PAC do consumidor
! fator de escala aplicado: 1
! 0 cargas de MT descartadas por PAC ausente da rede.
! ==========================================================
New Load.BT_3045004_1 Bus1=3045004-11992099.1.4 Phases=1 Model=8 zipv=(0.5,0,0.5,1,0,0,0) kv=0.1100 pf=0.92 kW=0.443938 Daily=RES-Tipo5
New Load.BT_3045004_2 Bus1=3045004-11992099.2.4 Phases=1 Model=8 zipv=(0.5,0,0.5,1,0,0,0) kv=0.1100 pf=0.92 kW=0.443938 Daily=RES-Tipo5
New Load.BT_2788618_1 Bus1=2788618-10921623.1.4 Phases=1 Model=8 zipv=(0.5,0,0.5,1,0,0,0) kv=0.1100 pf=0.92 kW=1.044425 Daily=RES-Tipo2
New Load.BT_2788618_2 Bus1=2788618-10921623.2.4 Phases=1 Model=8 zipv=(0.5,0,0.5,1,0,0,0) kv=0.1100 pf=0.92 kW=1.044425 Daily=RES-Tipo2
New Load.BT_3134801_1 Bus1=3134801-11272411.1.4 Phases=1 Model=8 zipv=(0.5,0,0.5,1,0,0,0) kv=0.1270 pf=0.92 kW=12.718498 Daily=RES-Tipo4
New Load.BT_3134801_2 Bus1=3134801-11272411.2.4 Phases=1 Model=8 zipv=(0.5,0,0.5,1,0,0,0) kv=0.1270 pf=0.92 kW=12.718498 Daily=RES-Tipo4
New Load.BT_3134801_3 Bus1=3134801-11272411.3.4 Phases=1 Model=8 zipv=(0.5,0,0.5,1,0,0,0) kv=0.1270 pf=0.92 kW=12.718498 Daily=RES-Tipo4
New Load.BT_3135015_1 Bus1=3135015-12566800.1.4 Phases=1 Model=8 zipv=(0.5,0,0.5,1,0,0,0) kv=0.1270 pf=0.92 kW=1.290087 Daily=RES-Tipo2
New Load.BT_3135015_2 Bus1=3135015-12566800.2.4 Phases=1 Model=8 zipv=(0.5,0,0.5,1,0,0,0) kv=0.1270 pf=0.92 kW=1.290087 Daily=RES-Tipo2
New Load.BT_3135015_3 Bus1=3135015-12566800.3.4 Phases=1 Model=8 zipv=(0.5,0,0.5,1,0,0,0) kv=0.1270 pf=0.92 kW=1.290087 Daily=RES-Tipo2
New Load.BT_3138140_1 Bus1=3138140-12566738.1.4 Phases=1 Model=8 zipv=(0.5,0,0.5,1,0,0,0) kv=0.1270 pf=0.92 kW=3.647311 Daily=RES-Tipo4
New Load.BT_3138140_2 Bus1=3138140-12566738.2.4 Phases=1 Model=8 zipv=(0.5,0,0.5,1,0,0,0) kv=0.1270 pf=0.92 kW=3.647311 Daily=RES-Tipo4
New Load.BT_3138140_3 Bus1=3138140-12566738.3.4 Phases=1 Model=8 zipv=(0.5,0,0.5,1,0,0,0) kv=0.1270 pf=0.92 kW=3.647311 Daily=RES-Tipo4
New Load.BT_2789318_1 Bus1=2789318-12339108.1.4 Phases=1 Model=8 zipv=(0.5,0,0.5,1,0,0,0) kv=0.1270 pf=0.92 kW=3.513356 Daily=RES-Tipo4
New Load.BT_2789318_2 Bus1=2789318-12339108.2.4 Phases=1 Model=8 zipv=(0.5,0,0.5,1,0,0,0) kv=0.1270 pf=0.92 kW=3.513356 Daily=RES-Tipo4
New Load.BT_2789318_3 Bus1=2789318-12339108.3.4 Phases=1 Model=8 zipv=(0.5,0,0.5,1,0,0,0) kv=0.1270 pf=0.92 kW=3.513356 Daily=RES-Tipo4
New Load.BT_2789187_1 Bus1=2789187-10919965.1.4 Phases=1 Model=8 zipv=(0.5,0,0.5,1,0,0,0) kv=0.1100 pf=0.92 kW=0.409404 Daily=RES-Tipo1
New Load.BT_2789187_2 Bus1=2789187-10919965.2.4 Phases=1 Model=8 zipv=(0.5,0,0.5,1,0,0,0) kv=0.1100 pf=0.92 kW=0.409404 Daily=RES-Tipo1
New Load.BT_2788766_1 Bus1=2788766-10922675.1.4 Phases=1 Model=8 zipv=(0.5,0,0.5,1,0,0,0) kv=0.1100 pf=0.92 kW=0.406171 Daily=RUR-Tipo3
New Load.BT_2788766_2 Bus1=2788766-10922675.2.4 Phases=1 Model=8 zipv=(0.5,0,0.5,1,0,0,0) kv=0.1100 pf=0.92 kW=0.406171 Daily=RUR-Tipo3
New Load.BT_3077277_1 Bus1=3077277-10915749.1.4 Phases=1 Model=8 zipv=(0.5,0,0.5,1,0,0,0) kv=0.1270 pf=0.92 kW=6.878781 Daily=RES-Tipo8
New Load.BT_3077277_2 Bus1=3077277-10915749.2.4 Phases=1 Model=8 zipv=(0.5,0,0.5,1,0,0,0) kv=0.1270 pf=0.92 kW=6.878781 Daily=RES-Tipo8
New Load.BT_3077277_3 Bus1=3077277-10915749.3.4 Phases=1 Model=8 zipv=(0.5,0,0.5,1,0,0,0) kv=0.1270 pf=0.92 kW=6.878781 Daily=RES-Tipo8
New Load.BT_2788662_1 Bus1=2788662-10919920.1.4 Phases=1 Model=8 zipv=(0.5,0,0.5,1,0,0,0) kv=0.1100 pf=0.92 kW=0.038205 Daily=RES-Tipo1
New Load.BT_2788662_2 Bus1=2788662-10919920.2.4 Phases=1 Model=8 zipv=(0.5,0,0.5,1,0,0,0) kv=0.1100 pf=0.92 kW=0.038205 Daily=RES-Tipo1
New Load.BT_2788898_1 Bus1=2788898-10922508.1.4 Phases=1 Model=8 zipv=(0.5,0,0.5,1,0,0,0) kv=0.1270 pf=0.92 kW=0.091169 Daily=RES-Tipo10
New Load.BT_2788898_2 Bus1=2788898-10922508.2.4 Phases=1 Model=8 zipv=(0.5,0,0.5,1,0,0,0) kv=0.1270 pf=0.92 kW=0.091169 Daily=RES-Tipo10
New Load.BT_2788898_3 Bus1=2788898-10922508.3.4 Phases=1 Model=8 zipv=(0.5,0,0.5,1,0,0,0) kv=0.1270 pf=0.92 kW=0.091169 Daily=RES-Tipo10
New Load.BT_2788885_1 Bus1=2788885-10913485.1.4 Phases=1 Model=8 zipv=(0.5,0,0.5,1,0,0,0) kv=0.1100 pf=0.92 kW=0.572534 Daily=RES-Tipo2
New Load.BT_2788885_2 Bus1=2788885-10913485.2.4 Phases=1 Model=8 zipv=(0.5,0,0.5,1,0,0,0) kv=0.1100 pf=0.92 kW=0.572534 Daily=RES-Tipo2
New Load.BT_3138187_1 Bus1=3138187-12568597.1.4 Phases=1 Model=8 zipv=(0.5,0,0.5,1,0,0,0) kv=0.1270 pf=0.92 kW=5.106443 Daily=RES-Tipo3
New Load.BT_3138187_2 Bus1=3138187-12568597.2.4 Phases=1 Model=8 zipv=(0.5,0,0.5,1,0,0,0) kv=0.1270 pf=0.92 kW=5.106443 Daily=RES-Tipo3
New Load.BT_3138187_3 Bus1=3138187-12568597.3.4 Phases=1 Model=8 zipv=(0.5,0,0.5,1,0,0,0) kv=0.1270 pf=0.92 kW=5.106443 Daily=RES-Tipo3
New Load.BT_3135763_1 Bus1=3135763-10919116.1.4 Phases=1 Model=8 zipv=(0.5,0,0.5,1,0,0,0) kv=0.1270 pf=0.92 kW=9.383023 Daily=RES-Tipo6
New Load.BT_3135763_2 Bus1=3135763-10919116.2.4 Phases=1 Model=8 zipv=(0.5,0,0.5,1,0,0,0) kv=0.1270 pf=0.92 kW=9.383023 Daily=RES-Tipo6
New Load.BT_3135763_3 Bus1=3135763-10919116.3.4 Phases=1 Model=8 zipv=(0.5,0,0.5,1,0,0,0) kv=0.1270 pf=0.92 kW=9.383023 Daily=RES-Tipo6
New Load.BT_2788567_1 Bus1=2788567-10918415.1.4 Phases=1 Model=8 zipv=(0.5,0,0.5,1,0,0,0) kv=0.1270 pf=0.92 kW=6.546224 Daily=RES-Tipo1
New Load.BT_2788567_2 Bus1=2788567-10918415.2.4 Phases=1 Model=8 zipv=(0.5,0,0.5,1,0,0,0) kv=0.1270 pf=0.92 kW=6.546224 Daily=RES-Tipo1
New Load.BT_2788567_3 Bus1=2788567-10918415.3.4 Phases=1 Model=8 zipv=(0.5,0,0.5,1,0,0,0) kv=0.1270 pf=0.92 kW=6.546224 Daily=RES-Tipo1
New Load.BT_2788935_1 Bus1=2788935-10918418.1.4 Phases=1 Model=8 zipv=(0.5,0,0.5,1,0,0,0) kv=0.1270 pf=0.92 kW=6.191648 Daily=RES-Tipo1
New Load.BT_2788935_2 Bus1=2788935-10918418.2.4 Phases=1 Model=8 zipv=(0.5,0,0.5,1,0,0,0) kv=0.1270 pf=0.92 kW=6.191648 Daily=RES-Tipo1
New Load.BT_2788935_3 Bus1=2788935-10918418.3.4 Phases=1 Model=8 zipv=(0.5,0,0.5,1,0,0,0) kv=0.1270 pf=0.92 kW=6.191648 Daily=RES-Tipo1
New Load.BT_2789084_1 Bus1=2789084-10921878.1.4 Phases=1 Model=8 zipv=(0.5,0,0.5,1,0,0,0) kv=0.1100 pf=0.92 kW=0.541671 Daily=RES-Tipo4
New Load.BT_2789084_2 Bus1=2789084-10921878.2.4 Phases=1 Model=8 zipv=(0.5,0,0.5,1,0,0,0) kv=0.1100 pf=0.92 kW=0.541671 Daily=RES-Tipo4
New Load.BT_3107283_1 Bus1=3107283-12388644.1.4 Phases=1 Model=8 zipv=(0.5,0,0.5,1,0,0,0) kv=0.1270 pf=0.92 kW=0.325749 Daily=RES-Tipo1
New Load.BT_3107283_2 Bus1=3107283-12388644.2.4 Phases=1 Model=8 zipv=(0.5,0,0.5,1,0,0,0) kv=0.1270 pf=0.92 kW=0.325749 Daily=RES-Tipo1
New Load.BT_3107283_3 Bus1=3107283-12388644.3.4 Phases=1 Model=8 zipv=(0.5,0,0.5,1,0,0,0) kv=0.1270 pf=0.92 kW=0.325749 Daily=RES-Tipo1
New Load.BT_2788887_1 Bus1=2788887-10918299.1.4 Phases=1 Model=8 zipv=(0.5,0,0.5,1,0,0,0) kv=0.1100 pf=0.92 kW=0.289151 Daily=RES-Tipo4
New Load.BT_2788887_2 Bus1=2788887-10918299.2.4 Phases=1 Model=8 zipv=(0.5,0,0.5,1,0,0,0) kv=0.1100 pf=0.92 kW=0.289151 Daily=RES-Tipo4
New Load.BT_3098572_1 Bus1=3098572-10920990.1.4 Phases=1 Model=8 zipv=(0.5,0,0.5,1,0,0,0) kv=0.1270 pf=0.92 kW=2.533767 Daily=RES-Tipo1
New Load.BT_3098572_2 Bus1=3098572-10920990.2.4 Phases=1 Model=8 zipv=(0.5,0,0.5,1,0,0,0) kv=0.1270 pf=0.92 kW=2.533767 Daily=RES-Tipo1
New Load.BT_3098572_3 Bus1=3098572-10920990.3.4 Phases=1 Model=8 zipv=(0.5,0,0.5,1,0,0,0) kv=0.1270 pf=0.92 kW=2.533767 Daily=RES-Tipo1
New Load.BT_3098147_1 Bus1=3098147-12338445.1.4 Phases=1 Model=8 zipv=(0.5,0,0.5,1,0,0,0) kv=0.1270 pf=0.92 kW=2.258379 Daily=RES-Tipo1
New Load.BT_3098147_2 Bus1=3098147-12338445.2.4 Phases=1 Model=8 zipv=(0.5,0,0.5,1,0,0,0) kv=0.1270 pf=0.92 kW=2.258379 Daily=RES-Tipo1
New Load.BT_3098147_3 Bus1=3098147-12338445.3.4 Phases=1 Model=8 zipv=(0.5,0,0.5,1,0,0,0) kv=0.1270 pf=0.92 kW=2.258379 Daily=RES-Tipo1
New Load.BT_3134639_1 Bus1=3134639-10910204.1.4 Phases=1 Model=8 zipv=(0.5,0,0.5,1,0,0,0) kv=0.1270 pf=0.92 kW=8.997379 Daily=RES-Tipo9
New Load.BT_3134639_2 Bus1=3134639-10910204.2.4 Phases=1 Model=8 zipv=(0.5,0,0.5,1,0,0,0) kv=0.1270 pf=0.92 kW=8.997379 Daily=RES-Tipo9
New Load.BT_3134639_3 Bus1=3134639-10910204.3.4 Phases=1 Model=8 zipv=(0.5,0,0.5,1,0,0,0) kv=0.1270 pf=0.92 kW=8.997379 Daily=RES-Tipo9
New Load.BT_3134738_1 Bus1=3134738-12565314.1.4 Phases=1 Model=8 zipv=(0.5,0,0.5,1,0,0,0) kv=0.1270 pf=0.92 kW=11.254037 Daily=RES-Tipo6
New Load.BT_3134738_2 Bus1=3134738-12565314.2.4 Phases=1 Model=8 zipv=(0.5,0,0.5,1,0,0,0) kv=0.1270 pf=0.92 kW=11.254037 Daily=RES-Tipo6
New Load.BT_3134738_3 Bus1=3134738-12565314.3.4 Phases=1 Model=8 zipv=(0.5,0,0.5,1,0,0,0) kv=0.1270 pf=0.92 kW=11.254037 Daily=RES-Tipo6
New Load.BT_3134595_1 Bus1=3134595-12564008.1.4 Phases=1 Model=8 zipv=(0.5,0,0.5,1,0,0,0) kv=0.1270 pf=0.92 kW=4.547562 Daily=RES-Tipo5
New Load.BT_3134595_2 Bus1=3134595-12564008.2.4 Phases=1 Model=8 zipv=(0.5,0,0.5,1,0,0,0) kv=0.1270 pf=0.92 kW=4.547562 Daily=RES-Tipo5
New Load.BT_3134595_3 Bus1=3134595-12564008.3.4 Phases=1 Model=8 zipv=(0.5,0,0.5,1,0,0,0) kv=0.1270 pf=0.92 kW=4.547562 Daily=RES-Tipo5
New Load.BT_3113953_1 Bus1=3113953-10922759.1.4 Phases=1 Model=8 zipv=(0.5,0,0.5,1,0,0,0) kv=0.1270 pf=0.92 kW=3.851904 Daily=RES-Tipo5
New Load.BT_3113953_2 Bus1=3113953-10922759.2.4 Phases=1 Model=8 zipv=(0.5,0,0.5,1,0,0,0) kv=0.1270 pf=0.92 kW=3.851904 Daily=RES-Tipo5
New Load.BT_3113953_3 Bus1=3113953-10922759.3.4 Phases=1 Model=8 zipv=(0.5,0,0.5,1,0,0,0) kv=0.1270 pf=0.92 kW=3.851904 Daily=RES-Tipo5
New Load.BT_2789041_1 Bus1=2789041-10918195.1.4 Phases=1 Model=8 zipv=(0.5,0,0.5,1,0,0,0) kv=0.1100 pf=0.92 kW=0.674123 Daily=RES-Tipo8
New Load.BT_2789041_2 Bus1=2789041-10918195.2.4 Phases=1 Model=8 zipv=(0.5,0,0.5,1,0,0,0) kv=0.1100 pf=0.92 kW=0.674123 Daily=RES-Tipo8
New Load.BT_3187636_1 Bus1=3187636-10913750.1.4 Phases=1 Model=8 zipv=(0.5,0,0.5,1,0,0,0) kv=0.1100 pf=0.92 kW=0.013082 Daily=RUR-Tipo2
New Load.BT_3187636_2 Bus1=3187636-10913750.2.4 Phases=1 Model=8 zipv=(0.5,0,0.5,1,0,0,0) kv=0.1100 pf=0.92 kW=0.013082 Daily=RUR-Tipo2
New Load.BT_2789213_1 Bus1=2789213-10914974.1.4 Phases=1 Model=8 zipv=(0.5,0,0.5,1,0,0,0) kv=0.1100 pf=0.92 kW=0.006164 Daily=RUR-Tipo2
New Load.BT_2789213_2 Bus1=2789213-10914974.2.4 Phases=1 Model=8 zipv=(0.5,0,0.5,1,0,0,0) kv=0.1100 pf=0.92 kW=0.006164 Daily=RUR-Tipo2
New Load.BT_3135775_1 Bus1=3135775-10920945.1.4 Phases=1 Model=8 zipv=(0.5,0,0.5,1,0,0,0) kv=0.1270 pf=0.92 kW=9.606068 Daily=RES-Tipo6
New Load.BT_3135775_2 Bus1=3135775-10920945.2.4 Phases=1 Model=8 zipv=(0.5,0,0.5,1,0,0,0) kv=0.1270 pf=0.92 kW=9.606068 Daily=RES-Tipo6
New Load.BT_3135775_3 Bus1=3135775-10920945.3.4 Phases=1 Model=8 zipv=(0.5,0,0.5,1,0,0,0) kv=0.1270 pf=0.92 kW=9.606068 Daily=RES-Tipo6
New Load.BT_2788623_1 Bus1=2788623-10922722.1.4 Phases=1 Model=8 zipv=(0.5,0,0.5,1,0,0,0) kv=0.1270 pf=0.92 kW=9.172886 Daily=RES-Tipo1
New Load.BT_2788623_2 Bus1=2788623-10922722.2.4 Phases=1 Model=8 zipv=(0.5,0,0.5,1,0,0,0) kv=0.1270 pf=0.92 kW=9.172886 Daily=RES-Tipo1
New Load.BT_2788623_3 Bus1=2788623-10922722.3.4 Phases=1 Model=8 zipv=(0.5,0,0.5,1,0,0,0) kv=0.1270 pf=0.92 kW=9.172886 Daily=RES-Tipo1
New Load.BT_2788611_1 Bus1=2788611-10916385.1.4 Phases=1 Model=8 zipv=(0.5,0,0.5,1,0,0,0) kv=0.1100 pf=0.92 kW=0.054466 Daily=RES-Tipo2
New Load.BT_2788611_2 Bus1=2788611-10916385.2.4 Phases=1 Model=8 zipv=(0.5,0,0.5,1,0,0,0) kv=0.1100 pf=0.92 kW=0.054466 Daily=RES-Tipo2
New Load.BT_2789191_1 Bus1=2789191-10916311.1.4 Phases=1 Model=8 zipv=(0.5,0,0.5,1,0,0,0) kv=0.1100 pf=0.92 kW=0.244897 Daily=RES-Tipo1
New Load.BT_2789191_2 Bus1=2789191-10916311.2.4 Phases=1 Model=8 zipv=(0.5,0,0.5,1,0,0,0) kv=0.1100 pf=0.92 kW=0.244897 Daily=RES-Tipo1
New Load.BT_2789292_1 Bus1=2789292-10916275.1.4 Phases=1 Model=8 zipv=(0.5,0,0.5,1,0,0,0) kv=0.1100 pf=0.92 kW=0.057959 Daily=RES-Tipo1
New Load.BT_2789292_2 Bus1=2789292-10916275.2.4 Phases=1 Model=8 zipv=(0.5,0,0.5,1,0,0,0) kv=0.1100 pf=0.92 kW=0.057959 Daily=RES-Tipo1
New Load.BT_2788606_1 Bus1=2788606-10910903.1.4 Phases=1 Model=8 zipv=(0.5,0,0.5,1,0,0,0) kv=0.1100 pf=0.92 kW=0.157555 Daily=RES-Tipo1
New Load.BT_2788606_2 Bus1=2788606-10910903.2.4 Phases=1 Model=8 zipv=(0.5,0,0.5,1,0,0,0) kv=0.1100 pf=0.92 kW=0.157555 Daily=RES-Tipo1
New Load.BT_3127743_1 Bus1=3127743-10917199.1.4 Phases=1 Model=8 zipv=(0.5,0,0.5,1,0,0,0) kv=0.1270 pf=0.92 kW=5.153288 Daily=RES-Tipo4
New Load.BT_3127743_2 Bus1=3127743-10917199.2.4 Phases=1 Model=8 zipv=(0.5,0,0.5,1,0,0,0) kv=0.1270 pf=0.92 kW=5.153288 Daily=RES-Tipo4
New Load.BT_3127743_3 Bus1=3127743-10917199.3.4 Phases=1 Model=8 zipv=(0.5,0,0.5,1,0,0,0) kv=0.1270 pf=0.92 kW=5.153288 Daily=RES-Tipo4
New Load.BT_3107322_1 Bus1=3107322-12388875.1.4 Phases=1 Model=8 zipv=(0.5,0,0.5,1,0,0,0) kv=0.1270 pf=0.92 kW=5.206078 Daily=RES-Tipo1
New Load.BT_3107322_2 Bus1=3107322-12388875.2.4 Phases=1 Model=8 zipv=(0.5,0,0.5,1,0,0,0) kv=0.1270 pf=0.92 kW=5.206078 Daily=RES-Tipo1
New Load.BT_3107322_3 Bus1=3107322-12388875.3.4 Phases=1 Model=8 zipv=(0.5,0,0.5,1,0,0,0) kv=0.1270 pf=0.92 kW=5.206078 Daily=RES-Tipo1
New Load.BT_2789159_1 Bus1=2789159-10915304.1.4 Phases=1 Model=8 zipv=(0.5,0,0.5,1,0,0,0) kv=0.1270 pf=0.92 kW=1.002726 Daily=RES-Tipo1
New Load.BT_2789159_2 Bus1=2789159-10915304.2.4 Phases=1 Model=8 zipv=(0.5,0,0.5,1,0,0,0) kv=0.1270 pf=0.92 kW=1.002726 Daily=RES-Tipo1
New Load.BT_2789159_3 Bus1=2789159-10915304.3.4 Phases=1 Model=8 zipv=(0.5,0,0.5,1,0,0,0) kv=0.1270 pf=0.92 kW=1.002726 Daily=RES-Tipo1
New Load.BT_3098623_1 Bus1=3098623-11570859.1.4 Phases=1 Model=8 zipv=(0.5,0,0.5,1,0,0,0) kv=0.1270 pf=0.92 kW=5.371808 Daily=RES-Tipo1
New Load.BT_3098623_2 Bus1=3098623-11570859.2.4 Phases=1 Model=8 zipv=(0.5,0,0.5,1,0,0,0) kv=0.1270 pf=0.92 kW=5.371808 Daily=RES-Tipo1
New Load.BT_3098623_3 Bus1=3098623-11570859.3.4 Phases=1 Model=8 zipv=(0.5,0,0.5,1,0,0,0) kv=0.1270 pf=0.92 kW=5.371808 Daily=RES-Tipo1
New Load.BT_2933301_1 Bus1=2933301-10919953.1.4 Phases=1 Model=8 zipv=(0.5,0,0.5,1,0,0,0) kv=0.1270 pf=0.92 kW=2.474434 Daily=RES-Tipo1
New Load.BT_2933301_2 Bus1=2933301-10919953.2.4 Phases=1 Model=8 zipv=(0.5,0,0.5,1,0,0,0) kv=0.1270 pf=0.92 kW=2.474434 Daily=RES-Tipo1
New Load.BT_2933301_3 Bus1=2933301-10919953.3.4 Phases=1 Model=8 zipv=(0.5,0,0.5,1,0,0,0) kv=0.1270 pf=0.92 kW=2.474434 Daily=RES-Tipo1
New Load.BT_2788518_1 Bus1=2788518-10920233.1.4 Phases=1 Model=8 zipv=(0.5,0,0.5,1,0,0,0) kv=0.1100 pf=0.92 kW=0.545247 Daily=RUR-Tipo2
New Load.BT_2788518_2 Bus1=2788518-10920233.2.4 Phases=1 Model=8 zipv=(0.5,0,0.5,1,0,0,0) kv=0.1100 pf=0.92 kW=0.545247 Daily=RUR-Tipo2
New Load.BT_3134634_1 Bus1=3134634-12564295.1.4 Phases=1 Model=8 zipv=(0.5,0,0.5,1,0,0,0) kv=0.1270 pf=0.92 kW=5.703187 Daily=RES-Tipo1
New Load.BT_3134634_2 Bus1=3134634-12564295.2.4 Phases=1 Model=8 zipv=(0.5,0,0.5,1,0,0,0) kv=0.1270 pf=0.92 kW=5.703187 Daily=RES-Tipo1
New Load.BT_3134634_3 Bus1=3134634-12564295.3.4 Phases=1 Model=8 zipv=(0.5,0,0.5,1,0,0,0) kv=0.1270 pf=0.92 kW=5.703187 Daily=RES-Tipo1
New Load.BT_3127818_1 Bus1=3127818-10922698.1.4 Phases=1 Model=8 zipv=(0.5,0,0.5,1,0,0,0) kv=0.1270 pf=0.92 kW=2.587900 Daily=RES-Tipo1
New Load.BT_3127818_2 Bus1=3127818-10922698.2.4 Phases=1 Model=8 zipv=(0.5,0,0.5,1,0,0,0) kv=0.1270 pf=0.92 kW=2.587900 Daily=RES-Tipo1
New Load.BT_3127818_3 Bus1=3127818-10922698.3.4 Phases=1 Model=8 zipv=(0.5,0,0.5,1,0,0,0) kv=0.1270 pf=0.92 kW=2.587900 Daily=RES-Tipo1
New Load.BT_3127877_1 Bus1=3127877-11570730.1.4 Phases=1 Model=8 zipv=(0.5,0,0.5,1,0,0,0) kv=0.1270 pf=0.92 kW=7.725297 Daily=RES-Tipo1
New Load.BT_3127877_2 Bus1=3127877-11570730.2.4 Phases=1 Model=8 zipv=(0.5,0,0.5,1,0,0,0) kv=0.1270 pf=0.92 kW=7.725297 Daily=RES-Tipo1
New Load.BT_3127877_3 Bus1=3127877-11570730.3.4 Phases=1 Model=8 zipv=(0.5,0,0.5,1,0,0,0) kv=0.1270 pf=0.92 kW=7.725297 Daily=RES-Tipo1
New Load.BT_2789209_1 Bus1=2789209-10914872.1.4 Phases=1 Model=8 zipv=(0.5,0,0.5,1,0,0,0) kv=0.1100 pf=0.92 kW=0.329623 Daily=RES-Tipo3
New Load.BT_2789209_2 Bus1=2789209-10914872.2.4 Phases=1 Model=8 zipv=(0.5,0,0.5,1,0,0,0) kv=0.1100 pf=0.92 kW=0.329623 Daily=RES-Tipo3
New Load.BT_2789000_1 Bus1=2789000-10910357.1.4 Phases=1 Model=8 zipv=(0.5,0,0.5,1,0,0,0) kv=0.1100 pf=0.92 kW=0.554767 Daily=RES-Tipo2
New Load.BT_2789000_2 Bus1=2789000-10910357.2.4 Phases=1 Model=8 zipv=(0.5,0,0.5,1,0,0,0) kv=0.1100 pf=0.92 kW=0.554767 Daily=RES-Tipo2
New Load.BT_2789169_1 Bus1=2789169-10916226.1.4 Phases=1 Model=8 zipv=(0.5,0,0.5,1,0,0,0) kv=0.1100 pf=0.92 kW=0.006034 Daily=RES-Tipo5
New Load.BT_2789169_2 Bus1=2789169-10916226.2.4 Phases=1 Model=8 zipv=(0.5,0,0.5,1,0,0,0) kv=0.1100 pf=0.92 kW=0.006034 Daily=RES-Tipo5
New Load.BT_2789333_1 Bus1=2789333-10916359.1.4 Phases=1 Model=8 zipv=(0.5,0,0.5,1,0,0,0) kv=0.1100 pf=0.92 kW=2.444411 Daily=RES-Tipo2
New Load.BT_2789333_2 Bus1=2789333-10916359.2.4 Phases=1 Model=8 zipv=(0.5,0,0.5,1,0,0,0) kv=0.1100 pf=0.92 kW=2.444411 Daily=RES-Tipo2
New Load.BT_2789125_1 Bus1=2789125-10915288.1.4 Phases=1 Model=8 zipv=(0.5,0,0.5,1,0,0,0) kv=0.1100 pf=0.92 kW=0.274062 Daily=RES-Tipo9
New Load.BT_2789125_2 Bus1=2789125-10915288.2.4 Phases=1 Model=8 zipv=(0.5,0,0.5,1,0,0,0) kv=0.1100 pf=0.92 kW=0.274062 Daily=RES-Tipo9
New Load.BT_2788506_1 Bus1=2788506-10914903.1.4 Phases=1 Model=8 zipv=(0.5,0,0.5,1,0,0,0) kv=0.1100 pf=0.92 kW=0.415466 Daily=RUR-Tipo2
New Load.BT_2788506_2 Bus1=2788506-10914903.2.4 Phases=1 Model=8 zipv=(0.5,0,0.5,1,0,0,0) kv=0.1100 pf=0.92 kW=0.415466 Daily=RUR-Tipo2
New Load.BT_2788738_1 Bus1=2788738-10918221.1.4 Phases=1 Model=8 zipv=(0.5,0,0.5,1,0,0,0) kv=0.1270 pf=0.92 kW=1.414402 Daily=RES-Tipo3
New Load.BT_2788738_2 Bus1=2788738-10918221.2.4 Phases=1 Model=8 zipv=(0.5,0,0.5,1,0,0,0) kv=0.1270 pf=0.92 kW=1.414402 Daily=RES-Tipo3
New Load.BT_2788738_3 Bus1=2788738-10918221.3.4 Phases=1 Model=8 zipv=(0.5,0,0.5,1,0,0,0) kv=0.1270 pf=0.92 kW=1.414402 Daily=RES-Tipo3
New Load.BT_2788917_1 Bus1=2788917-10918254.1.4 Phases=1 Model=8 zipv=(0.5,0,0.5,1,0,0,0) kv=0.1100 pf=0.92 kW=0.376884 Daily=RES-Tipo2
New Load.BT_2788917_2 Bus1=2788917-10918254.2.4 Phases=1 Model=8 zipv=(0.5,0,0.5,1,0,0,0) kv=0.1100 pf=0.92 kW=0.376884 Daily=RES-Tipo2
New Load.BT_2789238_1 Bus1=2789238-10921875.1.4 Phases=1 Model=8 zipv=(0.5,0,0.5,1,0,0,0) kv=0.1270 pf=0.92 kW=5.353151 Daily=RES-Tipo4
New Load.BT_2789238_2 Bus1=2789238-10921875.2.4 Phases=1 Model=8 zipv=(0.5,0,0.5,1,0,0,0) kv=0.1270 pf=0.92 kW=5.353151 Daily=RES-Tipo4
New Load.BT_2789238_3 Bus1=2789238-10921875.3.4 Phases=1 Model=8 zipv=(0.5,0,0.5,1,0,0,0) kv=0.1270 pf=0.92 kW=5.353151 Daily=RES-Tipo4
New Load.BT_3107527_1 Bus1=3107527-12390466.1.4 Phases=1 Model=8 zipv=(0.5,0,0.5,1,0,0,0) kv=0.1270 pf=0.92 kW=7.150379 Daily=RES-Tipo1
New Load.BT_3107527_2 Bus1=3107527-12390466.2.4 Phases=1 Model=8 zipv=(0.5,0,0.5,1,0,0,0) kv=0.1270 pf=0.92 kW=7.150379 Daily=RES-Tipo1
New Load.BT_3107527_3 Bus1=3107527-12390466.3.4 Phases=1 Model=8 zipv=(0.5,0,0.5,1,0,0,0) kv=0.1270 pf=0.92 kW=7.150379 Daily=RES-Tipo1
New Load.BT_3122980_1 Bus1=3122980-10916413.1.4 Phases=1 Model=8 zipv=(0.5,0,0.5,1,0,0,0) kv=0.1270 pf=0.92 kW=5.849105 Daily=RES-Tipo4
New Load.BT_3122980_2 Bus1=3122980-10916413.2.4 Phases=1 Model=8 zipv=(0.5,0,0.5,1,0,0,0) kv=0.1270 pf=0.92 kW=5.849105 Daily=RES-Tipo4
New Load.BT_3122980_3 Bus1=3122980-10916413.3.4 Phases=1 Model=8 zipv=(0.5,0,0.5,1,0,0,0) kv=0.1270 pf=0.92 kW=5.849105 Daily=RES-Tipo4
New Load.BT_2789127_1 Bus1=2789127-10920652.1.4 Phases=1 Model=8 zipv=(0.5,0,0.5,1,0,0,0) kv=0.1100 pf=0.92 kW=0.388856 Daily=RES-Tipo1
New Load.BT_2789127_2 Bus1=2789127-10920652.2.4 Phases=1 Model=8 zipv=(0.5,0,0.5,1,0,0,0) kv=0.1100 pf=0.92 kW=0.388856 Daily=RES-Tipo1
New Load.BT_2788679_1 Bus1=2788679-10911835.1.4 Phases=1 Model=8 zipv=(0.5,0,0.5,1,0,0,0) kv=0.1270 pf=0.92 kW=2.924845 Daily=RES-Tipo1
New Load.BT_2788679_2 Bus1=2788679-10911835.2.4 Phases=1 Model=8 zipv=(0.5,0,0.5,1,0,0,0) kv=0.1270 pf=0.92 kW=2.924845 Daily=RES-Tipo1
New Load.BT_2788679_3 Bus1=2788679-10911835.3.4 Phases=1 Model=8 zipv=(0.5,0,0.5,1,0,0,0) kv=0.1270 pf=0.92 kW=2.924845 Daily=RES-Tipo1
New Load.BT_2964956_1 Bus1=2964956-11566790.1.4 Phases=1 Model=8 zipv=(0.5,0,0.5,1,0,0,0) kv=0.1270 pf=0.92 kW=0.554219 Daily=RES-Tipo5
New Load.BT_2964956_2 Bus1=2964956-11566790.2.4 Phases=1 Model=8 zipv=(0.5,0,0.5,1,0,0,0) kv=0.1270 pf=0.92 kW=0.554219 Daily=RES-Tipo5
New Load.BT_2964956_3 Bus1=2964956-11566790.3.4 Phases=1 Model=8 zipv=(0.5,0,0.5,1,0,0,0) kv=0.1270 pf=0.92 kW=0.554219 Daily=RES-Tipo5
New Load.BT_2788529_1 Bus1=2788529-10919238.1.4 Phases=1 Model=8 zipv=(0.5,0,0.5,1,0,0,0) kv=0.1100 pf=0.92 kW=0.392671 Daily=RES-Tipo2
New Load.BT_2788529_2 Bus1=2788529-10919238.2.4 Phases=1 Model=8 zipv=(0.5,0,0.5,1,0,0,0) kv=0.1100 pf=0.92 kW=0.392671 Daily=RES-Tipo2
New Load.BT_2789223_1 Bus1=2789223-10919433.1.4 Phases=1 Model=8 zipv=(0.5,0,0.5,1,0,0,0) kv=0.1100 pf=0.92 kW=0.596842 Daily=RES-Tipo3
New Load.BT_2789223_2 Bus1=2789223-10919433.2.4 Phases=1 Model=8 zipv=(0.5,0,0.5,1,0,0,0) kv=0.1100 pf=0.92 kW=0.596842 Daily=RES-Tipo3
New Load.BT_2788753_1 Bus1=2788753-10911047.1.4 Phases=1 Model=8 zipv=(0.5,0,0.5,1,0,0,0) kv=0.1270 pf=0.92 kW=3.626055 Daily=RES-Tipo1
New Load.BT_2788753_2 Bus1=2788753-10911047.2.4 Phases=1 Model=8 zipv=(0.5,0,0.5,1,0,0,0) kv=0.1270 pf=0.92 kW=3.626055 Daily=RES-Tipo1
New Load.BT_2788753_3 Bus1=2788753-10911047.3.4 Phases=1 Model=8 zipv=(0.5,0,0.5,1,0,0,0) kv=0.1270 pf=0.92 kW=3.626055 Daily=RES-Tipo1
New Load.BT_2789309_1 Bus1=2789309-10915128.1.4 Phases=1 Model=8 zipv=(0.5,0,0.5,1,0,0,0) kv=0.1270 pf=0.92 kW=5.827119 Daily=RES-Tipo5
New Load.BT_2789309_2 Bus1=2789309-10915128.2.4 Phases=1 Model=8 zipv=(0.5,0,0.5,1,0,0,0) kv=0.1270 pf=0.92 kW=5.827119 Daily=RES-Tipo5
New Load.BT_2789309_3 Bus1=2789309-10915128.3.4 Phases=1 Model=8 zipv=(0.5,0,0.5,1,0,0,0) kv=0.1270 pf=0.92 kW=5.827119 Daily=RES-Tipo5
New Load.BT_3116146_1 Bus1=3116146-10915459.1.4 Phases=1 Model=8 zipv=(0.5,0,0.5,1,0,0,0) kv=0.1270 pf=0.92 kW=5.496868 Daily=RES-Tipo4
New Load.BT_3116146_2 Bus1=3116146-10915459.2.4 Phases=1 Model=8 zipv=(0.5,0,0.5,1,0,0,0) kv=0.1270 pf=0.92 kW=5.496868 Daily=RES-Tipo4
New Load.BT_3116146_3 Bus1=3116146-10915459.3.4 Phases=1 Model=8 zipv=(0.5,0,0.5,1,0,0,0) kv=0.1270 pf=0.92 kW=5.496868 Daily=RES-Tipo4
New Load.BT_2789135_1 Bus1=2789135-10916186.1.4 Phases=1 Model=8 zipv=(0.5,0,0.5,1,0,0,0) kv=0.1270 pf=0.92 kW=6.135311 Daily=RES-Tipo4
New Load.BT_2789135_2 Bus1=2789135-10916186.2.4 Phases=1 Model=8 zipv=(0.5,0,0.5,1,0,0,0) kv=0.1270 pf=0.92 kW=6.135311 Daily=RES-Tipo4
New Load.BT_2789135_3 Bus1=2789135-10916186.3.4 Phases=1 Model=8 zipv=(0.5,0,0.5,1,0,0,0) kv=0.1270 pf=0.92 kW=6.135311 Daily=RES-Tipo4
New Load.BT_2788558_1 Bus1=2788558-10919770.1.4 Phases=1 Model=8 zipv=(0.5,0,0.5,1,0,0,0) kv=0.1100 pf=0.92 kW=1.542089 Daily=RES-Tipo3
New Load.BT_2788558_2 Bus1=2788558-10919770.2.4 Phases=1 Model=8 zipv=(0.5,0,0.5,1,0,0,0) kv=0.1100 pf=0.92 kW=1.542089 Daily=RES-Tipo3
New Load.BT_2788849_1 Bus1=2788849-10918539.1.4 Phases=1 Model=8 zipv=(0.5,0,0.5,1,0,0,0) kv=0.1270 pf=0.92 kW=2.178913 Daily=RES-Tipo2
New Load.BT_2788849_2 Bus1=2788849-10918539.2.4 Phases=1 Model=8 zipv=(0.5,0,0.5,1,0,0,0) kv=0.1270 pf=0.92 kW=2.178913 Daily=RES-Tipo2
New Load.BT_2788849_3 Bus1=2788849-10918539.3.4 Phases=1 Model=8 zipv=(0.5,0,0.5,1,0,0,0) kv=0.1270 pf=0.92 kW=2.178913 Daily=RES-Tipo2
New Load.BT_2789353_1 Bus1=2789353-10919872.1.4 Phases=1 Model=8 zipv=(0.5,0,0.5,1,0,0,0) kv=0.1100 pf=0.92 kW=0.392158 Daily=RES-Tipo2
New Load.BT_2789353_2 Bus1=2789353-10919872.2.4 Phases=1 Model=8 zipv=(0.5,0,0.5,1,0,0,0) kv=0.1100 pf=0.92 kW=0.392158 Daily=RES-Tipo2
New Load.BT_2789229_1 Bus1=2789229-10911027.1.4 Phases=1 Model=8 zipv=(0.5,0,0.5,1,0,0,0) kv=0.1100 pf=0.92 kW=0.118959 Daily=RES-Tipo3
New Load.BT_2789229_2 Bus1=2789229-10911027.2.4 Phases=1 Model=8 zipv=(0.5,0,0.5,1,0,0,0) kv=0.1100 pf=0.92 kW=0.118959 Daily=RES-Tipo3
New Load.BT_3134655_1 Bus1=3134655-10912735.1.4 Phases=1 Model=8 zipv=(0.5,0,0.5,1,0,0,0) kv=0.1270 pf=0.92 kW=6.315352 Daily=RES-Tipo8
New Load.BT_3134655_2 Bus1=3134655-10912735.2.4 Phases=1 Model=8 zipv=(0.5,0,0.5,1,0,0,0) kv=0.1270 pf=0.92 kW=6.315352 Daily=RES-Tipo8
New Load.BT_3134655_3 Bus1=3134655-10912735.3.4 Phases=1 Model=8 zipv=(0.5,0,0.5,1,0,0,0) kv=0.1270 pf=0.92 kW=6.315352 Daily=RES-Tipo8
New Load.BT_2788629_1 Bus1=2788629-10914419.1.4 Phases=1 Model=8 zipv=(0.5,0,0.5,1,0,0,0) kv=0.1270 pf=0.92 kW=18.381429 Daily=RES-Tipo5
New Load.BT_2788629_2 Bus1=2788629-10914419.2.4 Phases=1 Model=8 zipv=(0.5,0,0.5,1,0,0,0) kv=0.1270 pf=0.92 kW=18.381429 Daily=RES-Tipo5
New Load.BT_2788629_3 Bus1=2788629-10914419.3.4 Phases=1 Model=8 zipv=(0.5,0,0.5,1,0,0,0) kv=0.1270 pf=0.92 kW=18.381429 Daily=RES-Tipo5
New Load.BT_2789005_1 Bus1=2789005-10913770v.1.4 Phases=1 Model=8 zipv=(0.5,0,0.5,1,0,0,0) kv=0.1100 pf=0.92 kW=0.303315 Daily=RUR-Tipo5
New Load.BT_2789005_2 Bus1=2789005-10913770v.2.4 Phases=1 Model=8 zipv=(0.5,0,0.5,1,0,0,0) kv=0.1100 pf=0.92 kW=0.303315 Daily=RUR-Tipo5
New Load.BT_2788517_1 Bus1=2788517-10913786.1.4 Phases=1 Model=8 zipv=(0.5,0,0.5,1,0,0,0) kv=0.1100 pf=0.92 kW=0.825301 Daily=RES-Tipo5
New Load.BT_2788517_2 Bus1=2788517-10913786.2.4 Phases=1 Model=8 zipv=(0.5,0,0.5,1,0,0,0) kv=0.1100 pf=0.92 kW=0.825301 Daily=RES-Tipo5
New Load.BT_2789204_1 Bus1=2789204-10920828.1.4 Phases=1 Model=8 zipv=(0.5,0,0.5,1,0,0,0) kv=0.1100 pf=0.92 kW=0.051925 Daily=RES-Tipo5
New Load.BT_2789204_2 Bus1=2789204-10920828.2.4 Phases=1 Model=8 zipv=(0.5,0,0.5,1,0,0,0) kv=0.1100 pf=0.92 kW=0.051925 Daily=RES-Tipo5
New Load.BT_2788947_1 Bus1=2788947-10922160.1.4 Phases=1 Model=8 zipv=(0.5,0,0.5,1,0,0,0) kv=0.1270 pf=0.92 kW=2.029516 Daily=RES-Tipo2
New Load.BT_2788947_2 Bus1=2788947-10922160.2.4 Phases=1 Model=8 zipv=(0.5,0,0.5,1,0,0,0) kv=0.1270 pf=0.92 kW=2.029516 Daily=RES-Tipo2
New Load.BT_2788947_3 Bus1=2788947-10922160.3.4 Phases=1 Model=8 zipv=(0.5,0,0.5,1,0,0,0) kv=0.1270 pf=0.92 kW=2.029516 Daily=RES-Tipo2
New Load.BT_3127931_1 Bus1=3127931-10921143.1.4 Phases=1 Model=8 zipv=(0.5,0,0.5,1,0,0,0) kv=0.1270 pf=0.92 kW=8.892557 Daily=RES-Tipo6
New Load.BT_3127931_2 Bus1=3127931-10921143.2.4 Phases=1 Model=8 zipv=(0.5,0,0.5,1,0,0,0) kv=0.1270 pf=0.92 kW=8.892557 Daily=RES-Tipo6
New Load.BT_3127931_3 Bus1=3127931-10921143.3.4 Phases=1 Model=8 zipv=(0.5,0,0.5,1,0,0,0) kv=0.1270 pf=0.92 kW=8.892557 Daily=RES-Tipo6
New Load.BT_2789215_1 Bus1=2789215-10917691.1.4 Phases=1 Model=8 zipv=(0.5,0,0.5,1,0,0,0) kv=0.1270 pf=0.92 kW=9.078954 Daily=RES-Tipo4
New Load.BT_2789215_2 Bus1=2789215-10917691.2.4 Phases=1 Model=8 zipv=(0.5,0,0.5,1,0,0,0) kv=0.1270 pf=0.92 kW=9.078954 Daily=RES-Tipo4
New Load.BT_2789215_3 Bus1=2789215-10917691.3.4 Phases=1 Model=8 zipv=(0.5,0,0.5,1,0,0,0) kv=0.1270 pf=0.92 kW=9.078954 Daily=RES-Tipo4
New Load.BT_2788677_1 Bus1=2788677-10922358.1.4 Phases=1 Model=8 zipv=(0.5,0,0.5,1,0,0,0) kv=0.1100 pf=0.92 kW=0.218322 Daily=RES-Tipo2
New Load.BT_2788677_2 Bus1=2788677-10922358.2.4 Phases=1 Model=8 zipv=(0.5,0,0.5,1,0,0,0) kv=0.1100 pf=0.92 kW=0.218322 Daily=RES-Tipo2
New Load.BT_2788918_1 Bus1=2788918-10915294v.1.4 Phases=1 Model=8 zipv=(0.5,0,0.5,1,0,0,0) kv=0.1100 pf=0.92 kW=0.462390 Daily=RES-Tipo1
New Load.BT_2788918_2 Bus1=2788918-10915294v.2.4 Phases=1 Model=8 zipv=(0.5,0,0.5,1,0,0,0) kv=0.1100 pf=0.92 kW=0.462390 Daily=RES-Tipo1
New Load.BT_2789291_1 Bus1=2789291-10915298v.1.4 Phases=1 Model=8 zipv=(0.5,0,0.5,1,0,0,0) kv=0.1100 pf=0.92 kW=0.074233 Daily=RES-Tipo1
New Load.BT_2789291_2 Bus1=2789291-10915298v.2.4 Phases=1 Model=8 zipv=(0.5,0,0.5,1,0,0,0) kv=0.1100 pf=0.92 kW=0.074233 Daily=RES-Tipo1
New Load.BT_3098278_1 Bus1=3098278-10913202.1.4 Phases=1 Model=8 zipv=(0.5,0,0.5,1,0,0,0) kv=0.1270 pf=0.92 kW=4.508918 Daily=RES-Tipo8
...

! --- cargas de media tensao (UCMT_tab) ---
New Load.MT_25324-12474372_0 Bus1=25324-12474372.1.2.3 Phases=3 Conn=wye Model=8 zipv=(0.5,0,0.5,1,0,0,0) kv=34.5000 pf=0.92 kW=111.3847 Daily=MT-Tipo2
New Load.MT_15842-11465391_1 Bus1=15842-11465391.1.2.3 Phases=3 Conn=wye Model=8 zipv=(0.5,0,0.5,1,0,0,0) kv=34.5000 pf=0.92 kW=58.7638 Daily=MT-Tipo8
New Load.MT_16107-10869907_2 Bus1=16107-10869907.1.2.3 Phases=3 Conn=wye Model=8 zipv=(0.5,0,0.5,1,0,0,0) kv=13.8000 pf=0.92 kW=126.8416 Daily=MT-Tipo6
New Load.MT_15842-11377955_3 Bus1=15842-11377955.1.2.3 Phases=3 Conn=wye Model=8 zipv=(0.5,0,0.5,1,0,0,0) kv=34.5000 pf=0.92 kW=35.7963 Daily=MT-Tipo8
New Load.MT_26282-10919982_4 Bus1=26282-10919982.1.2.3 Phases=3 Conn=wye Model=8 zipv=(0.5,0,0.5,1,0,0,0) kv=13.8000 pf=0.92 kW=28.2522 Daily=MT-Tipo4
New Load.MT_26282-12762067_5 Bus1=26282-12762067.1.2.3 Phases=3 Conn=wye Model=8 zipv=(0.5,0,0.5,1,0,0,0) kv=13.8000 pf=0.92 kW=28.2218 Daily=MT-Tipo3
New Load.MT_25323-11271307_6 Bus1=25323-11271307.1.2.3 Phases=3 Conn=wye Model=8 zipv=(0.5,0,0.5,1,0,0,0) kv=34.5000 pf=0.92 kW=16.5810 Daily=MT-Tipo10
New Load.MT_25324-11274152_7 Bus1=25324-11274152.1.2.3 Phases=3 Conn=wye Model=8 zipv=(0.5,0,0.5,1,0,0,0) kv=34.5000 pf=0.92 kW=18.6265 Daily=MT-Tipo1
New Load.MT_16107-12677530_8 Bus1=16107-12677530.1.2.3 Phases=3 Conn=wye Model=8 zipv=(0.5,0,0.5,1,0,0,0) kv=13.8000 pf=0.92 kW=14.1492 Daily=MT-Tipo2
New Load.MT_16107-13048210_9 Bus1=16107-13048210.1.2.3 Phases=3 Conn=wye Model=8 zipv=(0.5,0,0.5,1,0,0,0) kv=13.8000 pf=0.92 kW=34.0155 Daily=MT-Tipo1
New Load.MT_26283-10871018_10 Bus1=26283-10871018.1.2.3 Phases=3 Conn=wye Model=8 zipv=(0.5,0,0.5,1,0,0,0) kv=13.8000 pf=0.92 kW=18.7005 Daily=MT-Tipo9
New Load.MT_25323-11271484_11 Bus1=25323-11271484.1.2.3 Phases=3 Conn=wye Model=8 zipv=(0.5,0,0.5,1,0,0,0) kv=34.5000 pf=0.92 kW=24.8626 Daily=MT-Tipo9
New Load.MT_26283-10869356_12 Bus1=26283-10869356.1.2.3 Phases=3 Conn=wye Model=8 zipv=(0.5,0,0.5,1,0,0,0) kv=13.8000 pf=0.92 kW=40.9826 Daily=MT-Tipo9
New Load.MT_26283-10869908_13 Bus1=26283-10869908.1.2.3 Phases=3 Conn=wye Model=8 zipv=(0.5,0,0.5,1,0,0,0) kv=13.8000 pf=0.92 kW=15.4822 Daily=MT-Tipo9
New Load.MT_26282-12056239_14 Bus1=26282-12056239.1.2.3 Phases=3 Conn=wye Model=8 zipv=(0.5,0,0.5,1,0,0,0) kv=13.8000 pf=0.92 kW=234.7556 Daily=MT-Tipo3
New Load.MT_21642-12197019_15 Bus1=21642-12197019.1.2.3 Phases=3 Conn=wye Model=8 zipv=(0.5,0,0.5,1,0,0,0) kv=13.8000 pf=0.92 kW=384.1368 Daily=MT-Tipo7
New Load.MT_16102-10869343_16 Bus1=16102-10869343.1.2.3 Phases=3 Conn=wye Model=8 zipv=(0.5,0,0.5,1,0,0,0) kv=13.8000 pf=0.92 kW=36.7159 Daily=MT-Tipo3
New Load.MT_16102-10868516_17 Bus1=16102-10868516.1.2.3 Phases=3 Conn=wye Model=8 zipv=(0.5,0,0.5,1,0,0,0) kv=13.8000 pf=0.92 kW=9.3818 Daily=MT-Tipo1
New Load.MT_25324-11272367_18 Bus1=25324-11272367.1.2.3 Phases=3 Conn=wye Model=8 zipv=(0.5,0,0.5,1,0,0,0) kv=34.5000 pf=0.92 kW=4.5523 Daily=MT-Tipo1
New Load.MT_16107-12333973_19 Bus1=16107-12333973.1.2.3 Phases=3 Conn=wye Model=8 zipv=(0.5,0,0.5,1,0,0,0) kv=13.8000 pf=0.92 kW=4.3812 Daily=MT-Tipo1
New Load.MT_21642-10889132_20 Bus1=21642-10889132.1.2.3 Phases=3 Conn=wye Model=8 zipv=(0.5,0,0.5,1,0,0,0) kv=13.8000 pf=0.92 kW=1.6624 Daily=MT-Tipo6
New Load.MT_21642-11390670_21 Bus1=21642-11390670.1.2.3 Phases=3 Conn=wye Model=8 zipv=(0.5,0,0.5,1,0,0,0) kv=13.8000 pf=0.92 kW=4.4379 Daily=MT-Tipo1
New Load.MT_16102-10869626_22 Bus1=16102-10869626.1.2.3 Phases=3 Conn=wye Model=8 zipv=(0.5,0,0.5,1,0,0,0) kv=13.8000 pf=0.92 kW=8.3181 Daily=MT-Tipo7
New Load.MT_26283-11465409_23 Bus1=26283-11465409.1.2.3 Phases=3 Conn=wye Model=8 zipv=(0.5,0,0.5,1,0,0,0) kv=13.8000 pf=0.92 kW=27.4083 Daily=MT-Tipo6
New Load.MT_26282-11898155_24 Bus1=26282-11898155.1.2.3 Phases=3 Conn=wye Model=8 zipv=(0.5,0,0.5,1,0,0,0) kv=13.8000 pf=0.92 kW=14.5684 Daily=MT-Tipo3
New Load.MT_16102-12580969_25 Bus1=16102-12580969.1.2.3 Phases=3 Conn=wye Model=8 zipv=(0.5,0,0.5,1,0,0,0) kv=13.8000 pf=0.92 kW=5.6285 Daily=MT-Tipo1
New Load.MT_16102-12568478_26 Bus1=16102-12568478.1.2.3 Phases=3 Conn=wye Model=8 zipv=(0.5,0,0.5,1,0,0,0) kv=13.8000 pf=0.92 kW=0.7785 Daily=MT-Tipo3
New Load.MT_16102-10868883_27 Bus1=16102-10868883.1.2.3 Phases=3 Conn=wye Model=8 zipv=(0.5,0,0.5,1,0,0,0) kv=13.8000 pf=0.92 kW=3.4748 Daily=MT-Tipo9
New Load.MT_26282-10911023_28 Bus1=26282-10911023.1.2.3 Phases=3 Conn=wye Model=8 zipv=(0.5,0,0.5,1,0,0,0) kv=13.8000 pf=0.92 kW=3.3622 Daily=MT-Tipo6
New Load.MT_16107-12569847_29 Bus1=16107-12569847.1.2.3 Phases=3 Conn=wye Model=8 zipv=(0.5,0,0.5,1,0,0,0) kv=13.8000 pf=0.92 kW=7.2124 Daily=MT-Tipo1
New Load.MT_26282-10915788_30 Bus1=26282-10915788.1.2.3 Phases=3 Conn=wye Model=8 zipv=(0.5,0,0.5,1,0,0,0) kv=13.8000 pf=0.92 kW=2.1262 Daily=MT-Tipo9
New Load.MT_15662-12517386_31 Bus1=15662-12517386.1.2.3 Phases=3 Conn=wye Model=8 zipv=(0.5,0,0.5,1,0,0,0) kv=34.5000 pf=0.92 kW=108.8450 Daily=MT-Tipo2
New Load.MT_15662-11674158_32 Bus1=15662-11674158.1.2.3 Phases=3 Conn=wye Model=8 zipv=(0.5,0,0.5,1,0,0,0) kv=34.5000 pf=0.92 kW=14848.5298 Daily=MT-Tipo3
New Load.MT_16112-12342514_33 Bus1=16112-12342514.1.2.3 Phases=3 Conn=wye Model=8 zipv=(0.5,0,0.5,1,0,0,0) kv=13.8000 pf=0.92 kW=4.3793 Daily=MT-Tipo3
New Load.MT_26283-10869346_34 Bus1=26283-10869346.1.2.3 Phases=3 Conn=wye Model=8 zipv=(0.5,0,0.5,1,0,0,0) kv=13.8000 pf=0.92 kW=3.5631 Daily=MT-Tipo1
New Load.MT_16107-10889137_35 Bus1=16107-10889137.1.2.3 Phases=3 Conn=wye Model=8 zipv=(0.5,0,0.5,1,0,0,0) kv=13.8000 pf=0.92 kW=4.6671 Daily=MT-Tipo1
New Load.MT_25323-12497321_36 Bus1=25323-12497321.1.2.3 Phases=3 Conn=wye Model=8 zipv=(0.5,0,0.5,1,0,0,0) kv=34.5000 pf=0.92 kW=2.6640 Daily=MT-Tipo4
New Load.MT_25323-12527519_37 Bus1=25323-12527519.1.2.3 Phases=3 Conn=wye Model=8 zipv=(0.5,0,0.5,1,0,0,0) kv=34.5000 pf=0.92 kW=16.8751 Daily=MT-Tipo3
New Load.MT_26282-10918411_38 Bus1=26282-10918411.1.2.3 Phases=3 Conn=wye Model=8 zipv=(0.5,0,0.5,1,0,0,0) kv=13.8000 pf=0.92 kW=2.3645 Daily=MT-Tipo9
New Load.MT_25324-11273354_39 Bus1=25324-11273354.1.2.3 Phases=3 Conn=wye Model=8 zipv=(0.5,0,0.5,1,0,0,0) kv=34.5000 pf=0.92 kW=4.6332 Daily=MT-Tipo4
New Load.MT_16107-12404789_40 Bus1=16107-12404789.1.2.3 Phases=3 Conn=wye Model=8 zipv=(0.5,0,0.5,1,0,0,0) kv=13.8000 pf=0.92 kW=0.8621 Daily=MT-Tipo2
New Load.MT_16112-12447814_41 Bus1=16112-12447814.1.2.3 Phases=3 Conn=wye Model=8 zipv=(0.5,0,0.5,1,0,0,0) kv=13.8000 pf=0.92 kW=3.2593 Daily=MT-Tipo4
New Load.MT_21643-12334157_42 Bus1=21643-12334157.1.2.3 Phases=3 Conn=wye Model=8 zipv=(0.5,0,0.5,1,0,0,0) kv=13.8000 pf=0.92 kW=3.2448 Daily=MT-Tipo1
New Load.MT_25324-13010290_43 Bus1=25324-13010290.1.2.3 Phases=3 Conn=wye Model=8 zipv=(0.5,0,0.5,1,0,0,0) kv=34.5000 pf=0.92 kW=1.9836 Daily=MT-Tipo3
New Load.MT_26282-10910997_44 Bus1=26282-10910997.1.2.3 Phases=3 Conn=wye Model=8 zipv=(0.5,0,0.5,1,0,0,0) kv=13.8000 pf=0.92 kW=43.3331 Daily=MT-Tipo1
New Load.MT_15842-12610125_45 Bus1=15842-12610125.1.2.3 Phases=3 Conn=wye Model=8 zipv=(0.5,0,0.5,1,0,0,0) kv=34.5000 pf=0.92 kW=3.4191 Daily=MT-Tipo3
New Load.MT_25323-12626468_46 Bus1=25323-12626468.1.2.3 Phases=3 Conn=wye Model=8 zipv=(0.5,0,0.5,1,0,0,0) kv=34.5000 pf=0.92 kW=2.4706 Daily=MT-Tipo8
New Load.MT_16107-10888933_47 Bus1=16107-10888933.1.2.3 Phases=3 Conn=wye Model=8 zipv=(0.5,0,0.5,1,0,0,0) kv=13.8000 pf=0.92 kW=10.2963 Daily=MT-Tipo1
New Load.MT_16107-10888167_48 Bus1=16107-10888167.1.2.3 Phases=3 Conn=wye Model=8 zipv=(0.5,0,0.5,1,0,0,0) kv=13.8000 pf=0.92 kW=0.1508 Daily=MT-Tipo1
New Load.MT_16112-13251041_49 Bus1=16112-13251041.1.2.3 Phases=3 Conn=wye Model=8 zipv=(0.5,0,0.5,1,0,0,0) kv=13.8000 pf=0.92 kW=0.6333 Daily=MT-Tipo6
New Load.MT_25324-12563143_50 Bus1=25324-12563143.1.2.3 Phases=3 Conn=wye Model=8 zipv=(0.5,0,0.5,1,0,0,0) kv=34.5000 pf=0.92 kW=24.2038 Daily=MT-Tipo3
New Load.MT_16112-12445604_51 Bus1=16112-12445604.1.2.3 Phases=3 Conn=wye Model=8 zipv=(0.5,0,0.5,1,0,0,0) kv=13.8000 pf=0.92 kW=0.5715 Daily=MT-Tipo3
New Load.MT_25324-12563212_52 Bus1=25324-12563212.1.2.3 Phases=3 Conn=wye Model=8 zipv=(0.5,0,0.5,1,0,0,0) kv=34.5000 pf=0.92 kW=42.0458 Daily=MT-Tipo10
New Load.MT_16107-10888362_53 Bus1=16107-10888362.1.2.3 Phases=3 Conn=wye Model=8 zipv=(0.5,0,0.5,1,0,0,0) kv=13.8000 pf=0.92 kW=4.4644 Daily=MT-Tipo1
New Load.MT_16107-12336509_54 Bus1=16107-12336509.1.2.3 Phases=3 Conn=wye Model=8 zipv=(0.5,0,0.5,1,0,0,0) kv=13.8000 pf=0.92 kW=6.3833 Daily=MT-Tipo1
New Load.MT_16107-10889131_55 Bus1=16107-10889131.1.2.3 Phases=3 Conn=wye Model=8 zipv=(0.5,0,0.5,1,0,0,0) kv=13.8000 pf=0.92 kW=16.3404 Daily=MT-Tipo10
New Load.MT_26282-12387975_56 Bus1=26282-12387975.1.2.3 Phases=3 Conn=wye Model=8 zipv=(0.5,0,0.5,1,0,0,0) kv=13.8000 pf=0.92 kW=24.5969 Daily=MT-Tipo2
New Load.MT_16107-10888267_57 Bus1=16107-10888267.1.2.3 Phases=3 Conn=wye Model=8 zipv=(0.5,0,0.5,1,0,0,0) kv=13.8000 pf=0.92 kW=14.6588 Daily=MT-Tipo2
New Load.MT_16107-12445461_58 Bus1=16107-12445461.1.2.3 Phases=3 Conn=wye Model=8 zipv=(0.5,0,0.5,1,0,0,0) kv=13.8000 pf=0.92 kW=15.7607 Daily=MT-Tipo2
New Load.MT_25324-12481182_59 Bus1=25324-12481182.1.2.3 Phases=3 Conn=wye Model=8 zipv=(0.5,0,0.5,1,0,0,0) kv=34.5000 pf=0.92 kW=3.2547 Daily=MT-Tipo1
New Load.MT_25323-12047928_60 Bus1=25323-12047928.1.2.3 Phases=3 Conn=wye Model=8 zipv=(0.5,0,0.5,1,0,0,0) kv=34.5000 pf=0.92 kW=7.4404 Daily=MT-Tipo9
New Load.MT_21642-11978157_61 Bus1=21642-11978157.1.2.3 Phases=3 Conn=wye Model=8 zipv=(0.5,0,0.5,1,0,0,0) kv=13.8000 pf=0.92 kW=5.4125 Daily=MT-Tipo8
New Load.MT_16107-10888547_62 Bus1=16107-10888547.1.2.3 Phases=3 Conn=wye Model=8 zipv=(0.5,0,0.5,1,0,0,0) kv=13.8000 pf=0.92 kW=9.7496 Daily=MT-Tipo1
New Load.MT_26283-10868888_63 Bus1=26283-10868888.1.2.3 Phases=3 Conn=wye Model=8 zipv=(0.5,0,0.5,1,0,0,0) kv=13.8000 pf=0.92 kW=8.2272 Daily=MT-Tipo1
New Load.MT_26282-10918403_64 Bus1=26282-10918403.1.2.3 Phases=3 Conn=wye Model=8 zipv=(0.5,0,0.5,1,0,0,0) kv=13.8000 pf=0.92 kW=5.5161 Daily=MT-Tipo9
New Load.MT_26282-10919963_65 Bus1=26282-10919963.1.2.3 Phases=3 Conn=wye Model=8 zipv=(0.5,0,0.5,1,0,0,0) kv=13.8000 pf=0.92 kW=1.9243 Daily=MT-Tipo1
New Load.MT_16107-12570758_66 Bus1=16107-12570758.1.2.3 Phases=3 Conn=wye Model=8 zipv=(0.5,0,0.5,1,0,0,0) kv=13.8000 pf=0.92 kW=0.8866 Daily=MT-Tipo2
New Load.MT_16107-12402188_67 Bus1=16107-12402188.1.2.3 Phases=3 Conn=wye Model=8 zipv=(0.5,0,0.5,1,0,0,0) kv=13.8000 pf=0.92 kW=9.0878 Daily=MT-Tipo2
New Load.MT_26283-10871019_68 Bus1=26283-10871019.1.2.3 Phases=3 Conn=wye Model=8 zipv=(0.5,0,0.5,1,0,0,0) kv=13.8000 pf=0.92 kW=3.2568 Daily=MT-Tipo1
New Load.MT_16112-10915811_69 Bus1=16112-10915811.1.2.3 Phases=3 Conn=wye Model=8 zipv=(0.5,0,0.5,1,0,0,0) kv=13.8000 pf=0.92 kW=1.3299 Daily=MT-Tipo9
New Load.MT_25324-11273357_70 Bus1=25324-11273357.1.2.3 Phases=3 Conn=wye Model=8 zipv=(0.5,0,0.5,1,0,0,0) kv=34.5000 pf=0.92 kW=13.3395 Daily=MT-Tipo1
New Load.MT_25324-12401624_71 Bus1=25324-12401624.1.2.3 Phases=3 Conn=wye Model=8 zipv=(0.5,0,0.5,1,0,0,0) kv=34.5000 pf=0.92 kW=13.9767 Daily=MT-Tipo2
New Load.MT_25324-11271318_72 Bus1=25324-11271318.1.2.3 Phases=3 Conn=wye Model=8 zipv=(0.5,0,0.5,1,0,0,0) kv=34.5000 pf=0.92 kW=3.3953 Daily=MT-Tipo8
New Load.MT_16107-12684344_73 Bus1=16107-12684344.1.2.3 Phases=3 Conn=wye Model=8 zipv=(0.5,0,0.5,1,0,0,0) kv=13.8000 pf=0.92 kW=8.3842 Daily=MT-Tipo2
New Load.MT_16107-12568140_74 Bus1=16107-12568140.1.2.3 Phases=3 Conn=wye Model=8 zipv=(0.5,0,0.5,1,0,0,0) kv=13.8000 pf=0.92 kW=34.9985 Daily=MT-Tipo6
New Load.MT_15842-12388505_75 Bus1=15842-12388505.1.2.3 Phases=3 Conn=wye Model=8 zipv=(0.5,0,0.5,1,0,0,0) kv=34.5000 pf=0.92 kW=8.5084 Daily=MT-Tipo2
New Load.MT_25324-12561758_76 Bus1=25324-12561758.1.2.3 Phases=3 Conn=wye Model=8 zipv=(0.5,0,0.5,1,0,0,0) kv=34.5000 pf=0.92 kW=5.4725 Daily=MT-Tipo1
New Load.MT_16107-11313410_77 Bus1=16107-11313410.1.2.3 Phases=3 Conn=wye Model=8 zipv=(0.5,0,0.5,1,0,0,0) kv=13.8000 pf=0.92 kW=4.2635 Daily=MT-Tipo8
New Load.MT_26282-12793258_78 Bus1=26282-12793258.1.2.3 Phases=3 Conn=wye Model=8 zipv=(0.5,0,0.5,1,0,0,0) kv=13.8000 pf=0.92 kW=5.0665 Daily=MT-Tipo2
New Load.MT_25323-11270905_79 Bus1=25323-11270905.1.2.3 Phases=3 Conn=wye Model=8 zipv=(0.5,0,0.5,1,0,0,0) kv=34.5000 pf=0.92 kW=3.5434 Daily=MT-Tipo4
New Load.MT_15842-10712818_80 Bus1=15842-10712818.1.2.3 Phases=3 Conn=wye Model=8 zipv=(0.5,0,0.5,1,0,0,0) kv=34.5000 pf=0.92 kW=0.2773 Daily=MT-Tipo5
New Load.MT_25323-11273378_81 Bus1=25323-11273378.1.2.3 Phases=3 Conn=wye Model=8 zipv=(0.5,0,0.5,1,0,0,0) kv=34.5000 pf=0.92 kW=1.3725 Daily=MT-Tipo8
New Load.MT_26283-10868528_82 Bus1=26283-10868528.1.2.3 Phases=3 Conn=wye Model=8 zipv=(0.5,0,0.5,1,0,0,0) kv=13.8000 pf=0.92 kW=52.1383 Daily=MT-Tipo2
New Load.MT_26283-10869355_83 Bus1=26283-10869355.1.2.3 Phases=3 Conn=wye Model=8 zipv=(0.5,0,0.5,1,0,0,0) kv=13.8000 pf=0.92 kW=12.5248 Daily=MT-Tipo9
New Load.MT_16112-10919975_86 Bus1=16112-10919975.1.2.3 Phases=3 Conn=wye Model=8 zipv=(0.5,0,0.5,1,0,0,0) kv=13.8000 pf=0.92 kW=4.1597 Daily=MT-Tipo7
New Load.MT_16112-10920839_91 Bus1=16112-10920839.1.2.3 Phases=3 Conn=wye Model=8 zipv=(0.5,0,0.5,1,0,0,0) kv=13.8000 pf=0.92 kW=0.0924 Daily=MT-Tipo5
New Load.MT_16107-10888942_92 Bus1=16107-10888942.1.2.3 Phases=3 Conn=wye Model=8 zipv=(0.5,0,0.5,1,0,0,0) kv=13.8000 pf=0.92 kW=12.8857 Daily=MT-Tipo1
New Load.MT_15842-10715147_94 Bus1=15842-10715147.1.2.3 Phases=3 Conn=wye Model=8 zipv=(0.5,0,0.5,1,0,0,0) kv=34.5000 pf=0.92 kW=11.5380 Daily=MT-Tipo4
New Load.MT_26282-12980578_117 Bus1=26282-12980578.1.2.3 Phases=3 Conn=wye Model=8 zipv=(0.5,0,0.5,1,0,0,0) kv=13.8000 pf=0.92 kW=1.6232 Daily=MT-Tipo2
New Load.MT_16107-12397976_118 Bus1=16107-12397976.1.2.3 Phases=3 Conn=wye Model=8 zipv=(0.5,0,0.5,1,0,0,0) kv=13.8000 pf=0.92 kW=15.6628 Daily=MT-Tipo1
New Load.MT_26282-12622257_119 Bus1=26282-12622257.1.2.3 Phases=3 Conn=wye Model=8 zipv=(0.5,0,0.5,1,0,0,0) kv=13.8000 pf=0.92 kW=423.4428 Daily=MT-Tipo2
New Load.MT_16107-12569898_120 Bus1=16107-12569898.1.2.3 Phases=3 Conn=wye Model=8 zipv=(0.5,0,0.5,1,0,0,0) kv=13.8000 pf=0.92 kW=155.2381 Daily=MT-Tipo1
New Load.MT_16107-11870867_121 Bus1=16107-11870867.1.2.3 Phases=3 Conn=wye Model=8 zipv=(0.5,0,0.5,1,0,0,0) kv=13.8000 pf=0.92 kW=513.4630 Daily=MT-Tipo2
New Load.MT_16107-12401720_122 Bus1=16107-12401720.1.2.3 Phases=3 Conn=wye Model=8 zipv=(0.5,0,0.5,1,0,0,0) kv=13.8000 pf=0.92 kW=32.5487 Daily=MT-Tipo6
New Load.MT_16107-11817725_123 Bus1=16107-11817725.1.2.3 Phases=3 Conn=wye Model=8 zipv=(0.5,0,0.5,1,0,0,0) kv=13.8000 pf=0.92 kW=18.6976 Daily=MT-Tipo1
New Load.MT_16102-12590702_124 Bus1=16102-12590702.1.2.3 Phases=3 Conn=wye Model=8 zipv=(0.5,0,0.5,1,0,0,0) kv=13.8000 pf=0.92 kW=4.1715 Daily=MT-Tipo2
New Load.MT_26283-10868889_125 Bus1=26283-10868889.1.2.3 Phases=3 Conn=wye Model=8 zipv=(0.5,0,0.5,1,0,0,0) kv=13.8000 pf=0.92 kW=13.4791 Daily=MT-Tipo6
New Load.MT_16102-12336447_126 Bus1=16102-12336447.1.2.3 Phases=3 Conn=wye Model=8 zipv=(0.5,0,0.5,1,0,0,0) kv=13.8000 pf=0.92 kW=34.8861 Daily=MT-Tipo6
New Load.MT_25323-11273219_127 Bus1=25323-11273219.1.2.3 Phases=3 Conn=wye Model=8 zipv=(0.5,0,0.5,1,0,0,0) kv=34.5000 pf=0.92 kW=19.6545 Daily=MT-Tipo9
New Load.MT_16107-10888745_128 Bus1=16107-10888745.1.2.3 Phases=3 Conn=wye Model=8 zipv=(0.5,0,0.5,1,0,0,0) kv=13.8000 pf=0.92 kW=6.7151 Daily=MT-Tipo1
New Load.MT_26282-10922681_129 Bus1=26282-10922681.1.2.3 Phases=3 Conn=wye Model=8 zipv=(0.5,0,0.5,1,0,0,0) kv=13.8000 pf=0.92 kW=10.2968 Daily=MT-Tipo6
New Load.MT_21642-12520757_130 Bus1=21642-12520757.1.2.3 Phases=3 Conn=wye Model=8 zipv=(0.5,0,0.5,1,0,0,0) kv=13.8000 pf=0.92 kW=0.9068 Daily=MT-Tipo3
New Load.MT_16107-12569526_131 Bus1=16107-12569526.1.2.3 Phases=3 Conn=wye Model=8 zipv=(0.5,0,0.5,1,0,0,0) kv=13.8000 pf=0.92 kW=6.3137 Daily=MT-Tipo1
New Load.MT_25323-11274215_132 Bus1=25323-11274215.1.2.3 Phases=3 Conn=wye Model=8 zipv=(0.5,0,0.5,1,0,0,0) kv=34.5000 pf=0.92 kW=19.0736 Daily=MT-Tipo7
New Load.MT_16107-12335663_133 Bus1=16107-12335663.1.2.3 Phases=3 Conn=wye Model=8 zipv=(0.5,0,0.5,1,0,0,0) kv=13.8000 pf=0.92 kW=165.7830 Daily=MT-Tipo2
New Load.MT_16107-10888361_134 Bus1=16107-10888361.1.2.3 Phases=3 Conn=wye Model=8 zipv=(0.5,0,0.5,1,0,0,0) kv=13.8000 pf=0.92 kW=100.9744 Daily=MT-Tipo1
New Load.MT_25323-11273376_135 Bus1=25323-11273376.1.2.3 Phases=3 Conn=wye Model=8 zipv=(0.5,0,0.5,1,0,0,0) kv=34.5000 pf=0.92 kW=34.0663 Daily=MT-Tipo1
New Load.MT_16112-12342514_136 Bus1=16112-12342514.1.2.3 Phases=3 Conn=wye Model=8 zipv=(0.5,0,0.5,1,0,0,0) kv=13.8000 pf=0.92 kW=56.1041 Daily=MT-Tipo3
New Load.MT_21642-12338645_137 Bus1=21642-12338645.1.2.3 Phases=3 Conn=wye Model=8 zipv=(0.5,0,0.5,1,0,0,0) kv=13.8000 pf=0.92 kW=92.6700 Daily=MT-Tipo1
New Load.MT_25323-12456144_138 Bus1=25323-12456144.1.2.3 Phases=3 Conn=wye Model=8 zipv=(0.5,0,0.5,1,0,0,0) kv=34.5000 pf=0.92 kW=65.1796 Daily=MT-Tipo9
New Load.MT_26282-10918424_139 Bus1=26282-10918424.1.2.3 Phases=3 Conn=wye Model=8 zipv=(0.5,0,0.5,1,0,0,0) kv=13.8000 pf=0.92 kW=22.2800 Daily=MT-Tipo8
New Load.MT_16107-10870719_140 Bus1=16107-10870719.1.2.3 Phases=3 Conn=wye Model=8 zipv=(0.5,0,0.5,1,0,0,0) kv=13.8000 pf=0.92 kW=3.7304 Daily=MT-Tipo1
New Load.MT_16112-12564805_141 Bus1=16112-12564805.1.2.3 Phases=3 Conn=wye Model=8 zipv=(0.5,0,0.5,1,0,0,0) kv=13.8000 pf=0.92 kW=56.8367 Daily=MT-Tipo9
New Load.MT_26283-11446313_142 Bus1=26283-11446313.1.2.3 Phases=3 Conn=wye Model=8 zipv=(0.5,0,0.5,1,0,0,0) kv=13.8000 pf=0.92 kW=0.0305 Daily=MT-Tipo1
New Load.MT_15842-12183472_143 Bus1=15842-12183472.1.2.3 Phases=3 Conn=wye Model=8 zipv=(0.5,0,0.5,1,0,0,0) kv=34.5000 pf=0.92 kW=0.0183 Daily=MT-Tipo7
New Load.MT_26282-12135128_144 Bus1=26282-12135128.1.2.3 Phases=3 Conn=wye Model=8 zipv=(0.5,0,0.5,1,0,0,0) kv=13.8000 pf=0.92 kW=0.1318 Daily=MT-Tipo3
New Load.MT_26282-12135128_145 Bus1=26282-12135128.1.2.3 Phases=3 Conn=wye Model=8 zipv=(0.5,0,0.5,1,0,0,0) kv=13.8000 pf=0.92 kW=0.3640 Daily=MT-Tipo3
New Load.MT_16112-12510818_146 Bus1=16112-12510818.1.2.3 Phases=3 Conn=wye Model=8 zipv=(0.5,0,0.5,1,0,0,0) kv=13.8000 pf=0.92 kW=0.0167 Daily=MT-Tipo2
